Version 4
SHEET 1 1348 1396
WIRE -1296 -80 -1360 -80
WIRE -1200 -80 -1232 -80
WIRE -1184 -80 -1200 -80
WIRE -480 -80 -496 -80
WIRE -256 -80 -480 -80
WIRE -64 -80 -256 -80
WIRE -496 -48 -496 -80
WIRE -1360 -16 -1360 -80
WIRE -256 0 -256 -80
WIRE -960 16 -976 16
WIRE -864 16 -960 16
WIRE -688 16 -784 16
WIRE -624 16 -688 16
WIRE -624 80 -624 16
WIRE -608 80 -624 80
WIRE -496 80 -496 16
WIRE -496 80 -544 80
WIRE -64 80 -64 -80
WIRE -1360 112 -1360 64
WIRE -624 128 -624 80
WIRE -624 128 -704 128
WIRE -496 160 -496 80
WIRE -1344 192 -1360 192
WIRE -1312 192 -1344 192
WIRE -976 192 -976 16
WIRE -928 192 -976 192
WIRE -640 224 -704 224
WIRE -1360 240 -1360 192
WIRE -976 240 -976 192
WIRE -976 240 -1008 240
WIRE -928 240 -976 240
WIRE -1008 256 -1008 240
WIRE -928 320 -1008 320
WIRE -640 320 -640 224
WIRE -640 320 -704 320
WIRE -608 320 -640 320
WIRE -592 320 -608 320
WIRE -528 320 -592 320
WIRE -496 320 -496 224
WIRE -496 320 -528 320
WIRE -368 320 -496 320
WIRE -256 320 -256 64
WIRE -256 320 -368 320
WIRE -64 320 -64 160
WIRE -64 320 -256 320
WIRE -608 352 -608 320
WIRE -528 352 -528 320
WIRE -368 352 -368 320
WIRE -1360 400 -1360 320
WIRE -1008 464 -1008 320
WIRE -864 464 -1008 464
WIRE -608 464 -608 416
WIRE -608 464 -864 464
WIRE -528 464 -528 416
WIRE -528 464 -608 464
WIRE -368 464 -368 432
WIRE -368 464 -528 464
WIRE -528 560 -528 464
WIRE -528 688 -528 640
FLAG -1360 400 0
FLAG -1344 192 Vs
FLAG -528 688 0
FLAG -480 -80 VB
FLAG -960 16 trig
FLAG -688 16 out
FLAG -864 464 Vss
FLAG -1360 112 0
FLAG -1200 -80 VB
FLAG -592 320 Vs
SYMBOL voltage -1360 224 R0
WINDOW 123 0 0 Left 0
WINDOW 39 24 124 Left 2
SYMATTR SpiceLine Rser=1m
SYMATTR InstName V1
SYMATTR Value 12
SYMBOL zener -592 416 R180
WINDOW 0 24 64 Left 2
WINDOW 3 24 0 Left 2
SYMATTR InstName D2
SYMATTR Value BZX84C15VL
SYMBOL AutoGenerated\\ICM7555 -816 224 R0
SYMATTR InstName U3
SYMBOL cap -1024 256 R0
SYMATTR InstName C5
SYMATTR Value 1n
SYMATTR SpiceLine Rser=1
SYMBOL res -768 0 R90
WINDOW 0 0 56 VBottom 2
WINDOW 3 32 56 VTop 2
SYMATTR InstName R4
SYMATTR Value 47k
SYMBOL res -544 544 R0
SYMATTR InstName R3
SYMATTR Value 1.3k
SYMBOL cap -544 352 R0
SYMATTR InstName C3
SYMATTR Value 100n
SYMATTR SpiceLine Rser=1
SYMBOL cap -544 64 R90
WINDOW 0 0 32 VBottom 2
WINDOW 3 32 32 VTop 2
SYMATTR InstName C6
SYMATTR Value 10n
SYMATTR SpiceLine Rser=1
SYMBOL cap -272 0 R0
SYMATTR InstName C1
SYMATTR Value 100n
SYMATTR SpiceLine Rser=1
SYMBOL current -64 80 R0
WINDOW 123 0 0 Left 0
WINDOW 39 0 0 Left 0
SYMATTR InstName I1
SYMATTR Value 150µ
SYMBOL current -368 352 R0
WINDOW 123 0 0 Left 0
WINDOW 39 0 0 Left 0
SYMATTR InstName I2
SYMATTR Value 240µ
SYMBOL diode -480 16 R180
WINDOW 0 24 64 Left 2
WINDOW 3 24 0 Left 2
SYMATTR InstName D1
SYMATTR Value BAS70
SYMBOL diode -480 224 R180
WINDOW 0 24 64 Left 2
WINDOW 3 24 0 Left 2
SYMATTR InstName D3
SYMATTR Value BAS70
SYMBOL voltage -1360 -32 R0
WINDOW 123 0 0 Left 0
WINDOW 39 0 0 Left 0
SYMATTR InstName V2
SYMATTR Value 12
SYMBOL diode -1296 -64 R270
WINDOW 0 32 32 VTop 2
WINDOW 3 0 32 VBottom 2
SYMATTR InstName D5
SYMATTR Value BAS70
TEXT -1448 560 Left 2 !.tran 0 20m 0.1m uic
TEXT 0 72 Left 2 ;Maximum quiescent VB \nsupply current: 150u \n(normal 60u)
TEXT -320 376 Left 2 ;Maximum quiescent Vcc supply current: 300uA \n(normal 60uA)
TEXT -1456 624 Left 2 !.MODEL BAS70 D(IS=1.2n N=1.023 RS=25.5 XTI=2.5 EG=0.69\n+ CJO=1.45p M=0.382 VJ=0.539 FC=0.5 TT=40.0p BV=72.0 IBV=10.0u)
TEXT -408 -104 Left 2 ;VB-VS has to be > 9V, otherwise gate-driver might turn-off
TEXT -1456 712 Left 2 ;ICM7555 Model from Maxim Integrated:\nhttps://www.maximintegrated.com/content/dam/files/design/tools/modeling-simulation/spice/analog/clock-generation-distribution/ICM7555.lib
