Version 4
SHEET 1 1476 884
WIRE -32 -144 -64 -144
WIRE 624 -144 48 -144
WIRE -816 80 -896 80
WIRE -672 80 -816 80
WIRE -400 80 -672 80
WIRE 128 80 -400 80
WIRE 256 80 128 80
WIRE 384 80 256 80
WIRE 448 80 384 80
WIRE 624 80 624 -144
WIRE 624 80 544 80
WIRE 704 80 624 80
WIRE 768 80 704 80
WIRE 800 80 768 80
WIRE 384 128 384 80
WIRE -896 144 -896 80
WIRE -672 144 -672 80
WIRE 128 144 128 80
WIRE 128 144 48 144
WIRE 48 176 48 144
WIRE 256 224 256 80
WIRE 384 224 384 192
WIRE 464 224 464 128
WIRE 464 224 384 224
WIRE 128 272 128 144
WIRE -672 288 -672 224
WIRE -560 288 -672 288
WIRE -336 288 -560 288
WIRE -144 288 -256 288
WIRE -64 288 -64 -144
WIRE -64 288 -144 288
WIRE 48 288 48 240
WIRE 48 288 -64 288
WIRE 80 288 48 288
WIRE 704 288 704 80
WIRE -672 352 -672 288
WIRE 128 384 128 368
WIRE 256 384 256 304
WIRE 256 384 128 384
WIRE 304 384 256 384
WIRE 384 384 304 384
WIRE 464 384 464 224
WIRE 464 384 384 384
WIRE 304 448 304 384
WIRE 704 496 704 368
WIRE -400 544 -400 80
WIRE 304 592 304 528
WIRE 320 592 304 592
WIRE 368 592 320 592
WIRE 448 592 368 592
WIRE 320 656 320 592
WIRE 320 656 288 656
WIRE -400 672 -400 624
WIRE -32 672 -400 672
WIRE 64 672 -32 672
WIRE 448 672 448 592
WIRE 304 688 288 688
WIRE -400 720 -400 672
WIRE -32 784 -32 672
WIRE 496 784 -32 784
WIRE 624 784 624 80
WIRE 624 784 576 784
WIRE -896 816 -896 224
WIRE -784 816 -896 816
WIRE -672 816 -672 416
WIRE -672 816 -784 816
WIRE -784 848 -784 816
WIRE -400 848 -400 800
WIRE 304 848 304 688
WIRE 448 848 448 736
FLAG -784 848 0
FLAG -816 80 Vin
FLAG 768 80 Vout
FLAG 384 384 Gate_pwr
FLAG -144 288 Gate_pmos
FLAG -560 288 Zener_Overvolt
FLAG 304 848 0
FLAG 704 496 0
FLAG -400 848 0
FLAG 368 592 Cathode
FLAG 448 848 0
SYMBOL voltage -896 128 R0
WINDOW 123 0 0 Left 0
WINDOW 39 0 0 Left 0
SYMATTR InstName V1
SYMATTR Value PULSE(10 23 0 500m 500m 200m 2000m)
SYMBOL pmos 544 128 M270
SYMATTR InstName M1
SYMATTR Value IRF9Z24S_L
SYMBOL zener 400 192 R180
WINDOW 0 24 64 Left 2
WINDOW 3 24 0 Left 2
SYMATTR InstName D1
SYMATTR Value BZX84C10VL
SYMBOL zener -656 416 R180
WINDOW 0 24 64 Left 2
WINDOW 3 24 0 Left 2
SYMATTR InstName D2
SYMATTR Value BZX84C20VL
SYMBOL res -688 128 R0
SYMATTR InstName R3
SYMATTR Value 47k
SYMBOL res -240 272 R90
WINDOW 0 0 56 VBottom 2
WINDOW 3 32 56 VTop 2
SYMATTR InstName R4
SYMATTR Value 47k
SYMBOL res 320 544 R180
WINDOW 0 36 76 Left 2
WINDOW 3 36 40 Left 2
SYMATTR InstName R1
SYMATTR Value 47k
SYMBOL pmos 80 368 M180
SYMATTR InstName M2
SYMATTR Value BSS84
SYMBOL res 688 272 R0
SYMATTR InstName R2
SYMATTR Value 100
SYMBOL zener 64 240 R180
WINDOW 0 24 64 Left 2
WINDOW 3 43 34 Left 2
SYMATTR InstName D4
SYMATTR Value BZX84C10VL
SYMBOL res 240 208 R0
SYMATTR InstName R7
SYMATTR Value 47k
SYMBOL res -416 528 R0
SYMATTR InstName R8
SYMATTR Value 64.9k
SYMBOL res -416 704 R0
SYMATTR InstName R9
SYMATTR Value 17.8k
SYMBOL AutoGenerated\\ATL431A_TRANS 176 672 R0
SYMATTR InstName U1
SYMBOL cap 432 672 R0
SYMATTR InstName C1
SYMATTR Value 10n
SYMBOL res 592 768 R90
WINDOW 0 0 56 VBottom 2
WINDOW 3 32 56 VTop 2
SYMATTR InstName R5
SYMATTR Value 2Meg
SYMBOL res 64 -160 R90
WINDOW 0 0 56 VBottom 2
WINDOW 3 32 56 VTop 2
SYMATTR InstName R6
SYMATTR Value 2Meg
TEXT -1440 48 Left 2 !;op
TEXT -880 0 Left 2 !;dc V1 10 12 0.005
TEXT -1440 72 Left 2 !.tran 1200m
TEXT -1584 296 Left 2 ;PULSE(20 23 0 50m 50m 20m 200m)
