Version 4
SHEET 1 1476 884
WIRE -1328 80 -1408 80
WIRE -864 80 -1328 80
WIRE -416 80 -864 80
WIRE 128 80 -416 80
WIRE 384 80 128 80
WIRE 448 80 384 80
WIRE 704 80 544 80
WIRE 768 80 704 80
WIRE 800 80 768 80
WIRE 384 128 384 80
WIRE -1408 144 -1408 80
WIRE -416 144 -416 80
WIRE 128 144 128 80
WIRE 128 144 48 144
WIRE -864 176 -864 80
WIRE 48 176 48 144
WIRE 384 224 384 192
WIRE 464 224 464 128
WIRE 464 224 384 224
WIRE 128 272 128 144
WIRE -416 288 -416 224
WIRE -304 288 -416 288
WIRE -192 288 -304 288
WIRE -32 288 -112 288
WIRE 48 288 48 240
WIRE 48 288 -32 288
WIRE 80 288 48 288
WIRE 704 288 704 80
WIRE -416 320 -416 288
WIRE -416 320 -480 320
WIRE -864 336 -864 256
WIRE -736 336 -864 336
WIRE -704 336 -736 336
WIRE -416 352 -480 352
WIRE 128 384 128 368
WIRE 192 384 128 384
WIRE 304 384 192 384
WIRE 384 384 304 384
WIRE 464 384 464 224
WIRE 464 384 384 384
WIRE -864 416 -864 336
WIRE 304 448 304 384
WIRE -736 496 -736 336
WIRE -144 496 -736 496
WIRE 192 496 192 384
WIRE 192 496 -64 496
WIRE 704 496 704 368
WIRE -1408 560 -1408 224
WIRE -1296 560 -1408 560
WIRE -864 560 -864 496
WIRE -864 560 -1296 560
WIRE -416 560 -416 352
WIRE -416 560 -864 560
WIRE -1296 592 -1296 560
WIRE 304 592 304 528
FLAG -1296 592 0
FLAG -1328 80 Vin
FLAG 768 80 Vout
FLAG 384 384 Gate_pwr
FLAG -32 288 Gate_pmos
FLAG -304 288 Zener_Overvolt
FLAG 704 496 0
FLAG 304 592 0
SYMBOL voltage -1408 128 R0
WINDOW 123 0 0 Left 0
WINDOW 39 0 0 Left 0
SYMATTR InstName V1
SYMATTR Value PULSE(10 23 0 500m 500m 200m 2000m)
SYMBOL pmos 544 128 M270
SYMATTR InstName M1
SYMATTR Value IRF9Z24S_L
SYMBOL zener 400 192 R180
WINDOW 0 24 64 Left 2
WINDOW 3 24 0 Left 2
SYMATTR InstName D1
SYMATTR Value BZX84C10VL
SYMBOL res -432 128 R0
SYMATTR InstName R3
SYMATTR Value 47k
SYMBOL res -96 272 R90
WINDOW 0 0 56 VBottom 2
WINDOW 3 32 56 VTop 2
SYMATTR InstName R4
SYMATTR Value 47k
SYMBOL res 320 544 R180
WINDOW 0 36 76 Left 2
WINDOW 3 36 40 Left 2
SYMATTR InstName R1
SYMATTR Value 47k
SYMBOL pmos 80 368 M180
SYMATTR InstName M2
SYMATTR Value BSS84
SYMBOL res 688 272 R0
SYMATTR InstName R2
SYMATTR Value 100
SYMBOL zener 64 240 R180
WINDOW 0 24 64 Left 2
WINDOW 3 43 34 Left 2
SYMATTR InstName D4
SYMATTR Value BZX84C10VL
SYMBOL res -48 480 R90
WINDOW 0 0 56 VBottom 2
WINDOW 3 32 56 VTop 2
SYMATTR InstName R6
SYMATTR Value 470k
SYMBOL AutoGenerated\\ATL431A_TRANS -592 336 R0
SYMATTR InstName U2
SYMBOL res -880 160 R0
SYMATTR InstName R10
SYMATTR Value 100k
SYMBOL res -880 400 R0
SYMATTR InstName R11
SYMATTR Value 13k
TEXT -1392 -8 Left 2 !.tran 1200m
